5481287
  -OEChem-09112114423D

 36 40  0     0  0  0  0  0  0999 V2000
    0.3782   -1.9570    0.0017 N   0  0  0  0  0  0  0  0  0  0  0  0
   -1.9571   -0.3782    0.0007 N   0  0  0  0  0  0  0  0  0  0  0  0
    1.9571    0.3783    0.0000 N   0  0  0  0  0  0  0  0  0  0  0  0
   -0.3782    1.9570   -0.0014 N   0  0  0  0  0  0  0  0  0  0  0  0
   -0.4931   -2.9224    0.0002 C   0  0  0  0  0  0  0  0  0  0  0  0
   -2.9223    0.4931    0.0003 C   0  0  0  0  0  0  0  0  0  0  0  0
    2.9224   -0.4930    0.0009 C   0  0  0  0  0  0  0  0  0  0  0  0
    0.4931    2.9223   -0.0010 C   0  0  0  0  0  0  0  0  0  0  0  0
    1.6075   -2.5726    0.0002 C   0  0  0  0  0  0  0  0  0  0  0  0
   -2.5725   -1.6075    0.0007 C   0  0  0  0  0  0  0  0  0  0  0  0
    2.5726    1.6075    0.0001 C   0  0  0  0  0  0  0  0  0  0  0  0
   -1.6076    2.5726   -0.0008 C   0  0  0  0  0  0  0  0  0  0  0  0
   -2.8040    1.9692   -0.0001 C   0  0  0  0  0  0  0  0  0  0  0  0
    2.8039   -1.9692    0.0003 C   0  0  0  0  0  0  0  0  0  0  0  0
   -1.9693   -2.8039    0.0004 C   0  0  0  0  0  0  0  0  0  0  0  0
    1.9692    2.8039   -0.0005 C   0  0  0  0  0  0  0  0  0  0  0  0
    0.0844   -4.2734   -0.0023 C   0  0  0  0  0  0  0  0  0  0  0  0
   -4.2733   -0.0843    0.0005 C   0  0  0  0  0  0  0  0  0  0  0  0
    4.2734    0.0844    0.0012 C   0  0  0  0  0  0  0  0  0  0  0  0
   -0.0844    4.2732   -0.0003 C   0  0  0  0  0  0  0  0  0  0  0  0
    1.3904   -3.9983   -0.0022 C   0  0  0  0  0  0  0  0  0  0  0  0
   -3.9982   -1.3903    0.0007 C   0  0  0  0  0  0  0  0  0  0  0  0
    3.9982    1.3903    0.0007 C   0  0  0  0  0  0  0  0  0  0  0  0
   -1.3904    3.9982   -0.0001 C   0  0  0  0  0  0  0  0  0  0  0  0
   -3.7221    2.5488    0.0007 H   0  0  0  0  0  0  0  0  0  0  0  0
    3.7220   -2.5487   -0.0012 H   0  0  0  0  0  0  0  0  0  0  0  0
   -2.5489   -3.7221    0.0002 H   0  0  0  0  0  0  0  0  0  0  0  0
    2.5488    3.7221   -0.0005 H   0  0  0  0  0  0  0  0  0  0  0  0
   -0.4202   -5.2214   -0.0039 H   0  0  0  0  0  0  0  0  0  0  0  0
   -5.2213    0.4203    0.0005 H   0  0  0  0  0  0  0  0  0  0  0  0
    5.2214   -0.4202    0.0017 H   0  0  0  0  0  0  0  0  0  0  0  0
    0.4202    5.2213    0.0003 H   0  0  0  0  0  0  0  0  0  0  0  0
    2.1793   -4.7349   -0.0038 H   0  0  0  0  0  0  0  0  0  0  0  0
   -4.7349   -2.1793    0.0009 H   0  0  0  0  0  0  0  0  0  0  0  0
    4.7349    2.1792    0.0007 H   0  0  0  0  0  0  0  0  0  0  0  0
   -2.1793    4.7348    0.0005 H   0  0  0  0  0  0  0  0  0  0  0  0
  1  5  2  0  0  0  0
  1  9  1  0  0  0  0
  2  6  2  0  0  0  0
  2 10  1  0  0  0  0
  3  7  2  0  0  0  0
  3 11  1  0  0  0  0
  4  8  2  0  0  0  0
  4 12  1  0  0  0  0
  5 15  1  0  0  0  0
  5 17  1  0  0  0  0
  6 13  1  0  0  0  0
  6 18  1  0  0  0  0
  7 14  1  0  0  0  0
  7 19  1  0  0  0  0
  8 16  1  0  0  0  0
  8 20  1  0  0  0  0
  9 14  2  0  0  0  0
  9 21  1  0  0  0  0
 10 15  2  0  0  0  0
 10 22  1  0  0  0  0
 11 16  2  0  0  0  0
 11 23  1  0  0  0  0
 12 13  2  0  0  0  0
 12 24  1  0  0  0  0
 13 25  1  0  0  0  0
 14 26  1  0  0  0  0
 15 27  1  0  0  0  0
 16 28  1  0  0  0  0
 17 21  2  0  0  0  0
 17 29  1  0  0  0  0
 18 22  2  0  0  0  0
 18 30  1  0  0  0  0
 19 23  2  0  0  0  0
 19 31  1  0  0  0  0
 20 24  2  0  0  0  0
 20 32  1  0  0  0  0
 21 33  1  0  0  0  0
 22 34  1  0  0  0  0
 23 35  1  0  0  0  0
 24 36  1  0  0  0  0
M  END
> <PUBCHEM_COMPOUND_CID>
5481287

> <PUBCHEM_CONFORMER_RMSD>
0.6

> <PUBCHEM_CONFORMER_DIVERSEORDER>
1

> <PUBCHEM_MMFF94_PARTIAL_CHARGES>
36
1 -0.62
10 0.17
11 0.17
12 0.17
13 -0.14
14 -0.14
15 -0.14
16 -0.14
17 -0.14
18 -0.14
19 -0.14
2 -0.62
20 -0.14
21 -0.15
22 -0.15
23 -0.15
24 -0.15
25 0.15
26 0.15
27 0.15
28 0.15
29 0.15
3 -0.62
30 0.15
31 0.15
32 0.15
33 0.15
34 0.15
35 0.15
36 0.15
4 -0.62
5 0.42
6 0.42
7 0.42
8 0.42
9 0.17

> <PUBCHEM_EFFECTIVE_ROTOR_COUNT>
0

> <PUBCHEM_PHARMACOPHORE_FEATURES>
8
1 1 acceptor
1 2 acceptor
1 3 acceptor
1 4 acceptor
5 1 5 9 17 21 rings
5 2 6 10 18 22 rings
5 3 7 11 19 23 rings
5 4 8 12 20 24 rings

> <PUBCHEM_HEAVY_ATOM_COUNT>
24

> <PUBCHEM_ATOM_DEF_STEREO_COUNT>
0

> <PUBCHEM_ATOM_UDEF_STEREO_COUNT>
0

> <PUBCHEM_BOND_DEF_STEREO_COUNT>
0

> <PUBCHEM_BOND_UDEF_STEREO_COUNT>
0

> <PUBCHEM_ISOTOPIC_ATOM_COUNT>
0

> <PUBCHEM_COMPONENT_COUNT>
1

> <PUBCHEM_CACTVS_TAUTO_COUNT>
1

> <PUBCHEM_CONFORMER_ID>
0053A34700000001

> <PUBCHEM_MMFF94_ENERGY>
71.5738

> <PUBCHEM_FEATURE_SELFOVERLAP>
40.612

> <PUBCHEM_SHAPE_FINGERPRINT>
10616163 171 9201967298694633160
10816530 90 11504714096894269314
10967382 1 9255740005656303296
1100329 8 9263058359303536655
11513181 2 8621286487925762459
12038231 1 9260526179729801216
12539773 59 9471901582696381452
12553582 1 9544814806785957593
12645989 146 9256583253998577347
12838862 33 10553620032358494629
12838863 1 11201854709090059026
13122387 1 9244187441236017154
13140716 1 9195220690893013261
13402501 40 9256302955567513613
1361 2 9548193606714101396
138480 1 9179739567453553728
14114211 80 11134310653248901746
14178342 30 10064128416424124837
14251757 5 10700273976330815699
14466204 15 9703560097409312845
14765038 42 7816273582040359101
14784336 7 9838669035634685932
14790565 3 8319272753956688717
14940714 1 18338517542164758532
15320467 1 9265309059610875367
15328829 1 9544804706304849992
15403338 16 10692085083914454158
15927050 60 8766248398897261474
17093844 170 9497778760396643748
19319366 153 8756115505878576367
19591789 44 9184527940381463182
19930381 70 9424599711500528599
20775438 99 12225564790140768090
20905425 154 8553167434379061931
21796203 349 11709927981735280757
22113638 7 9620532674958554690
238 59 12138316540873457826
3014063 31 9346925799399024066
3882209 13 12007708707227451367
5309563 4 8750773910886829996
6433294 58 9125974539655947596
653340 110 9636559104927334484

> <PUBCHEM_SHAPE_MULTIPOLES>
473.98
6.59
6.59
0.6
0
0
0
0
0
0
0
0
0
0

> <PUBCHEM_SHAPE_SELFOVERLAP>
1089.133

> <PUBCHEM_SHAPE_VOLUME>
245.7

> <PUBCHEM_COORDINATE_TYPE>
2
5
10

$$$$
